Version 4
SHEET 1 1256 680
WIRE 1136 -64 1120 -64
WIRE -32 32 -48 32
WIRE -48 112 -48 32
WIRE 1120 112 1120 -64
WIRE 1056 160 832 160
WIRE -304 208 -320 208
WIRE -48 240 -48 192
WIRE 1120 240 1120 208
WIRE -320 288 -320 208
WIRE 1120 384 1120 320
WIRE -320 416 -320 368
FLAG -32 32 5VP
FLAG -48 240 0
FLAG -304 208 5V
FLAG -320 416 0
FLAG 1136 -64 5V
FLAG 832 160 5VP
FLAG 1120 384 0
SYMBOL voltage -48 96 R0
WINDOW 123 0 0 Left 0
WINDOW 39 0 0 Left 0
SYMATTR InstName V1
SYMATTR Value PULSE(0 5 0 0.0001 0.0001 1m 2m)
SYMBOL voltage -320 272 R0
WINDOW 123 0 0 Left 0
WINDOW 39 0 0 Left 0
SYMATTR InstName V2
SYMATTR Value 5
SYMBOL pnp 1056 208 M180
SYMATTR InstName Q1
SYMATTR Value 2SA1774
SYMBOL res 1104 224 R0
SYMATTR InstName R1
SYMATTR Value 10k
TEXT 520 264 Left 2 !.param f=1000\n.tran {3/f}
